/*--------------------------------*- C++ -*----------------------------------*\
| =========                 |                                                 |
| \\      /  F ield         | OpenFOAM: The Open Source CFD Toolbox           |
|  \\    /   O peration     | Version:  2.3.0                                 |
|   \\  /    A nd           | Web:      www.OpenFOAM.org                      |
|    \\/     M anipulation  |                                                 |
\*---------------------------------------------------------------------------*/
FoamFile
{
    version     2.0;
    format      ascii;
    class       dictionary;
    location    "constant";
    object      populationaBalanceProperties;
}
// * * * * * * * * * * * * * * * * * * * * * * * * * * * * * * * * * * * * * //

populationBalanceModel univariatePopulationBalance;

univariatePopulationBalanceCoeffs
{
    aggregation off;
    
    aggregationKernel
    {
        aggregationKernel constant;
    }
    
    breakup off;
    
    breakupKernel
    {
        breakupKernel constant;
    }
    
    daughterDistribution
    {
        daughterDistribution symmetricFragmentation;
    }
    
    diffusionModel
    {
        diffusionModel  none;
        gammaLam        gammaLam    [ 1 -1 -1 0 0 0 0 ] 0.0001;
        Sc              0.7;
    }
}





// ************************************************************************* //
