/*--------------------------------*- C++ -*----------------------------------*\
| =========                 |                                                 |
| \\      /  F ield         | OpenFOAM: The Open Source CFD Toolbox           |
|  \\    /   O peration     | Version:  dev                                   |
|   \\  /    A nd           | Web:      www.OpenFOAM.org                      |
|    \\/     M anipulation  |                                                 |
\*---------------------------------------------------------------------------*/
FoamFile
{
    version     2.0;
    format      ascii;
    class       dictionary;
    location    "constant";
    object      populationaBalanceProperties;
}
// * * * * * * * * * * * * * * * * * * * * * * * * * * * * * * * * * * * * * //

populationBalanceModel univariatePopulationBalance;

univariatePopulationBalanceCoeffs
{
    aggregation on;

    aggregationKernel
    {
        aggregationKernel constant;
    }

    breakup on;

    breakupKernel
    {
        breakupKernel constant;
    }

    daughterDistribution
    {
        daughterDistribution symmetricFragmentation;
    }

    diffusionModel
    {
        diffusionModel  none;
        gammaLam        gammaLam    [ 1 -1 -1 0 0 0 0 ] 0.0001;
        Sc              0.7;
    }

    growth on;

    growthModel
    {
        growthModel constant;

        Cg        Cg        [0 3 -1 0 0 0 0 ] 1.0;
    }

    nucleationModel
    {
        nucleationModel  none;
    }
}





// ************************************************************************* //
