/*--------------------------------*- C++ -*----------------------------------*\
| =========                 |                                                 |
| \\      /  F ield         | OpenFOAM: The Open Source CFD Toolbox           |
|  \\    /   O peration     | Version:  dev                                   |
|   \\  /    A nd           | Web:      www.OpenFOAM.org                      |
|    \\/     M anipulation  |                                                 |
\*---------------------------------------------------------------------------*/
FoamFile
{
    version     2.0;
    format      ascii;
    class       dictionary;
    location    "system";
    object      fvSchemes;
}
// * * * * * * * * * * * * * * * * * * * * * * * * * * * * * * * * * * * * * //

ddtSchemes
{
    default         Euler;
}

gradSchemes
{
    default         Gauss linear;
}

divSchemes
{
    default         none;
}

laplacianSchemes
{
    default         none;
}

interpolationSchemes
{
    default         linear;

    "interpolate\(moment.*\)" linear;

    reconstruct(m0)         Minmod;
    reconstruct(zeta)       Minmod;
    reconstruct(U)          upwind;
    reconstruct(weight)     upwind;
    reconstruct(abscissa)   upwind;
    reconstruct(sigma)      upwind;
}

snGradSchemes
{
    default         uncorrected;
}

fluxRequired
{
    default         no;
    T               ;
}


// ************************************************************************* //
