/*--------------------------------*- C++ -*----------------------------------*\
| =========                 |                                                 |
| \\      /  F ield         | OpenFOAM: The Open Source CFD Toolbox           |
|  \\    /   O peration     | Version:  dev                                   |
|   \\  /    A nd           | Web:      www.OpenFOAM.org                      |
|    \\/     M anipulation  |                                                 |
\*---------------------------------------------------------------------------*/
FoamFile
{
    version     2.0;
    format      ascii;
    class       dictionary;
    location    "system";
    object      momentGenerationDict;
}
// * * * * * * * * * * * * * * * * * * * * * * * * * * * * * * * * * * * * * //

phases
(
    particles
);

boundaries
{
    inlet1
    {
        type    fixedValue;
        value   uniform 0;
    }
    inlet2
    {
        type    fixedValue;
        value   uniform 0;
    }
    defaultFaces
    {
        type    empty;
    }
    walls
    {
        type    zeroGradient;
    }
    outlet
    {
        type    zeroGradient;
    }
}

particles
{
    type                weightsAndAbscissae;
    weightDimension     [0 -3 0 0 0 0 0];
    abscissaDimension   [1 0 0 0 0 0 0];

    internal
    {

//         node0
//         {
//             rho rho [1 -3 0 0 0 0 0] 1.40;
//             dia dia [0 1 0 0 0 0 0] 1.0e-3;
//             alpha alpha [0 0 0 0 0 0 0] 0.33;
//         }
//         node1
//         {
//             rho rho [1 -3 0 0 0 0 0] 1.40;
//             dia dia [0 1 0 0 0 0 0] 2.5e-3;
//             alpha alpha [0 0 0 0 0 0 0] 0.34;
//         }
//         node2
//         {
//             rho rho [1 -3 0 0 0 0 0] 1.40;
//             dia dia [0 1 0 0 0 0 0] 4.0e-3;
//             alpha alpha [0 0 0 0 0 0 0] 0.33;
//         }
    }
    inlet1
    {
        node11
        {
            weight  1;
            abscissa (1 1);
            rho     2500;
            dia     300e-6;
            alpha   0.33;
            U       (1 1 0);
        }
    }
    inlet2
    {
        node11
        {
            weight  1;
            abscissa (-1 1);
            rho     2500;
            dia     300e-6;
            alpha   0.33;
            U       (-1 1 0);
        }
    }
}


// ************************************************************************* //
