/*--------------------------------*- C++ -*----------------------------------*\
| =========                 |                                                 |
| \\      /  F ield         | OpenFOAM: The Open Source CFD Toolbox           |
|  \\    /   O peration     | Version:  dev                                   |
|   \\  /    A nd           | Web:      www.OpenFOAM.org                      |
|    \\/     M anipulation  |                                                 |
\*---------------------------------------------------------------------------*/
FoamFile
{
    version     2.0;
    format      ascii;
    class       dictionary;
    location    "system";
    object      momentGenerationDict;
}
// * * * * * * * * * * * * * * * * * * * * * * * * * * * * * * * * * * * * * //

phases
(
    particles
);

boundaries
{
    inlet1
    {
        type    fixedValue;
        value   uniform 0;
    }
    inlet2
    {
        type    fixedValue;
        value   uniform 0;
    }
    defaultFaces
    {
        type    empty;
    }
    walls
    {
        type    zeroGradient;
    }
    outlet
    {
        type    zeroGradient;
    }
}

particles
{
    type                weightsAndAbscissae;
    weightDimension     [0 0 0 0 0 0 0];
    abscissaDimension   [0 1 -1 0 0 0 0];

    internal
    {}
    inlet1
    {
        node0
        {
            weight  .01;
            abscissa (1 0.5);
        }
    }
    inlet2
    {
        node0
        {
            weight  .01;
            abscissa (-1 0.5);
        }
    }
}


// ************************************************************************* //
