/*--------------------------------*- C++ -*----------------------------------*\
  =========                 |
  \\      /  F ield         | OpenFOAM: The Open Source CFD Toolbox
   \\    /   O peration     | Website:  https://openfoam.org
    \\  /    A nd           | Version:  dev
     \\/     M anipulation  |
\*---------------------------------------------------------------------------*/
FoamFile
{
    version     2.0;
    format      ascii;
    class       dictionary;
    location    "constant";
    object      quadratureProperties;
}
// * * * * * * * * * * * * * * * * * * * * * * * * * * * * * * * * * * * * * //

fieldMomentInversion    basicFieldMomentInversion;

basicMomentInversion
{
    univariateMomentInversion GQMOM;
    ndfTypeRPlus gamma;  // optional: default is gamma. Alternative: lognormal
}

momentAdvection
{
    univariateMomentAdvection   noAdvection;
}

moments
(
    (0)
    (1)
    (2)
    (3)
    (4)
    (5)
    (6)
    (7)
);

nodes
(
    (0)
    (1)
    (2)
    (3)
    (4)
);

// ************************************************************************* //
