/*--------------------------------*- C++ -*----------------------------------*\
| =========                 |                                                 |
| \\      /  F ield         | OpenFOAM: The Open Source CFD Toolbox           |
|  \\    /   O peration     | Version:  v2112                                 |
|   \\  /    A nd           | Website:  www.openfoam.com                      |
|    \\/     M anipulation  |                                                 |
\*---------------------------------------------------------------------------*/
FoamFile
{
    version     2.0;
    format      ascii;
    class       dictionary;
    location    "constant";
    object      quadratureProperties;
}
// * * * * * * * * * * * * * * * * * * * * * * * * * * * * * * * * * * * * * //
supports ("R" "R" "R");
basicQuadrature0
{
    univariateMomentInversion   Gauss;
}
basicQuadrature1
{
    univariateMomentInversion   Gauss;
}
basicQuadrature2
{
    univariateMomentInversion   Gauss;
}

velocityIndexes (0 1 2);

moments
(
    (0 0 0)

    (1 0 0)
    (0 1 0)
    (0 0 1)

    (2 0 0)
    (0 2 0)
    (0 0 2)
    (1 1 0)
    (1 0 1)
    (0 1 1)

    (3 0 0)
    (0 3 0)
    (0 0 3)
    (0 1 2)
    (0 2 1)
    (1 0 2)
    (1 1 1)
    (1 2 0)
    (2 0 1)
    (2 1 0)

    (4 0 0)
    (0 4 0)
    (0 0 4)
    (0 2 2)
    (1 1 2)
    (1 2 1)
    (2 0 2)
    (2 1 1)
    (2 2 0)


    (5 0 0)
    (0 5 0)
    (0 0 5)
    (1 2 2)
    (2 1 2)
    (2 2 1)

    (2 2 2)


);

nodes
(
    (0 0 0)
    (0 1 0)
    (0 2 0)
    (1 0 0)
    (1 1 0)
    (1 2 0)
    (2 0 0)
    (2 1 0)
    (2 2 0)

    (0 0 1)
    (0 1 1)
    (0 2 1)
    (1 0 1)
    (1 1 1)
    (1 2 1)
    (2 0 1)
    (2 1 1)
    (2 2 1)

    (0 0 2)
    (0 1 2)
    (0 2 2)
    (1 0 2)
    (1 1 2)
    (1 2 2)
    (2 0 2)
    (2 1 2)
    (2 2 2)
);

// ************************************************************************* //
