/*--------------------------------*- C++ -*----------------------------------*\
| =========                 |                                                 |
| \\      /  F ield         | OpenFOAM: The Open Source CFD Toolbox           |
|  \\    /   O peration     | Version:  dev                                   |
|   \\  /    A nd           | Web:      www.OpenFOAM.org                      |
|    \\/     M anipulation  |                                                 |
\*---------------------------------------------------------------------------*/
FoamFile
{
    version     2.0;
    format      ascii;
    class       polyBoundaryMesh;
    location    "constant/polyMesh";
    object      boundary;
}
// * * * * * * * * * * * * * * * * * * * * * * * * * * * * * * * * * * * * * //

3
(
    left
    {
        type            cyclic;
        inGroups        1(cyclic);
        nFaces          1;
        startFace       999;
        matchTolerance  0.0001;
        transform       unknown;
        neighbourPatch  right;
    }
    right
    {
        type            cyclic;
        inGroups        1(cyclic);
        nFaces          1;
        startFace       1000;
        matchTolerance  0.0001;
        transform       unknown;
        neighbourPatch  left;
    }
    frontAndBack
    {
        type            empty;
        inGroups        1(empty);
        nFaces          4000;
        startFace       1001;
    }
)

// ************************************************************************* //
