/*--------------------------------*- C++ -*----------------------------------*\
  =========                 |
  \\      /  F ield         | OpenFOAM: The Open Source CFD Toolbox
   \\    /   O peration     | Website:  https://openfoam.org
    \\  /    A nd           | Version:  dev
     \\/     M anipulation  |
\*---------------------------------------------------------------------------*/
FoamFile
{
    version     2.0;
    format      ascii;
    class       dictionary;
    location    "system";
    object      momentGenerationDict;
}
// * * * * * * * * * * * * * * * * * * * * * * * * * * * * * * * * * * * * * //

phases
(
    particles
);

boundaries
{
    inlet1
    {
        type    fixedValue;
        value   uniform 0;
    }
    inlet2
    {
        type    fixedValue;
        value   uniform 0;
    }
    walls
    {
        type    zeroGradient;
    }
    outlet
    {
        type    zeroGradient;
    }
}

particles
{
    type                weightsAndAbscissae;
    weightDimension     [0 0 0 0 0 0 0];
    abscissaeDim0Dimensions   [0 1 0 0 0 0 0];
    abscissaeDim1Dimensions   [0 1 -1 0 0 0 0];
    abscissaeDim2Dimensions   [0 1 -1 0 0 0 0];
    abscissaeDim3Dimensions   [0 1 -1 0 0 0 0];

    internal
    {}
    inlet1
    {
        node0
        {
            weight  0.1;
            abscissa (0.01 1.0 1.0 1.0);
        }
    }
    inlet2
    {
        node0
        {
            weight  0.1;
            abscissa (0.05 -1.0 1.0 -1.0);
        }
    }
}


// ************************************************************************* //
