/*--------------------------------*- C++ -*----------------------------------*\
  =========                 |
  \\      /  F ield         | OpenFOAM: The Open Source CFD Toolbox
   \\    /   O peration     | Website:  https://openfoam.org
    \\  /    A nd           | Version:  dev
     \\/     M anipulation  |
\*---------------------------------------------------------------------------*/
FoamFile
{
    version     2.0;
    format      ascii;
    class       volScalarField;
    location    "0";
    object      moment.0;
}
// * * * * * * * * * * * * * * * * * * * * * * * * * * * * * * * * * * * * * //

dimensions      [0 -3 0 0 0 0 0];

internalField   uniform 3.125e12;

boundaryField
{
    "wedge.*"
    {
        type            wedge;
    }
    innerWall
    {
        type            zeroGradient;
    }
    outerWall
    {
        type            zeroGradient;
    }
    inlet
    {
        type            symmetry;
    }
    outlet
    {
        type            zeroGradient;
    }
}


// ************************************************************************* //
