/*--------------------------------*- C++ -*----------------------------------*\
  =========                 |
  \\      /  F ield         | OpenFOAM: The Open Source CFD Toolbox
   \\    /   O peration     | Website:  https://openfoam.org
    \\  /    A nd           | Version:  jeff
     \\/     M anipulation  |
\*---------------------------------------------------------------------------*/
FoamFile
{
    version     2.0;
    format      ascii;
    class       polyBoundaryMesh;
    location    "constant/polyMesh";
    object      boundary;
}
// * * * * * * * * * * * * * * * * * * * * * * * * * * * * * * * * * * * * * //

5
(
    frontAndBack
    {
        type            empty;
        nFaces          129376;
        startFace       96730;
    }
    top
    {
        type            cyclic;
        inGroups        1(cyclic);
        nFaces          151;
        startFace       226106;
        matchTolerance  0.0001;
        transform       coincidentFullMatch;
        neighbourPatch  bottom;
    }
    bottom
    {
        type            cyclic;
        inGroups        1(cyclic);
        nFaces          151;
        startFace       226257;
        matchTolerance  0.0001;
        transform       coincidentFullMatch;
        neighbourPatch  top;
    }
    left
    {
        type            cyclic;
        inGroups        1(cyclic);
        nFaces          151;
        startFace       226408;
        matchTolerance  0.0001;
        transform       coincidentFullMatch;
        neighbourPatch  right;
    }
    right
    {
        type            cyclic;
        inGroups        1(cyclic);
        nFaces          151;
        startFace       226559;
        matchTolerance  0.0001;
        transform       coincidentFullMatch;
        neighbourPatch  left;
    }
)

// ************************************************************************* //
