/*--------------------------------*- C++ -*----------------------------------*\
| =========                 |                                                 |
| \\      /  F ield         | OpenFOAM: The Open Source CFD Toolbox           |
|  \\    /   O peration     | Version:  dev                                   |
|   \\  /    A nd           | Web:      www.OpenFOAM.org                      |
|    \\/     M anipulation  |                                                 |
\*---------------------------------------------------------------------------*/
FoamFile
{
    version     2.0;
    format      ascii;
    class       dictionary;
    object      fvSchemes;
}
// * * * * * * * * * * * * * * * * * * * * * * * * * * * * * * * * * * * * * //

ddtSchemes
{
    default steadyState;
    "moment.*" Euler;
}

gradSchemes
{
    default         Gauss linear;
    bounded         Gauss linear; 
}

divSchemes
{
    default         none;

    div(phi,U)      bounded Gauss linearUpwindV bounded;
    div(phi,K)      bounded Gauss linearUpwind bounded;
    div(phi,e)      bounded Gauss linearUpwind bounded;
    div(phi,h)      bounded Gauss linearUpwind bounded;
    div(phi,k)      bounded Gauss linearUpwind bounded;
    div(phi,epsilon) bounded Gauss linearUpwind bounded;
    div(phi,omega) bounded Gauss linearUpwind bounded;
    div(phi,R) bounded Gauss vanLeer;
    div(phi,Ekp)    bounded Gauss linearUpwind bounded;
    div(((rho*nuEff)*dev2(T(grad(U))))) Gauss linear;
    div(((rho*(thermo:mu|thermo:rho))*dev2(T(grad(U))))) Gauss linear;
    div((rho*R))    Gauss linear;
    "div\(phi,moment.*\)" Gauss upwind;
}

laplacianSchemes
{
    default         Gauss linear uncorrected;
}

interpolationSchemes
{
    default         linear;
    
    "interpolate\(moment.*\)" upwind phi;
    
    reconstruct(U)          upwind;
    reconstruct(weight)     upwind;
    reconstruct(abscissa)   upwind;
    reconstruct(sigma)      upwind;
}

snGradSchemes
{
    default         uncorrected;
}

wallDist
{
    method meshWave;
}


// ************************************************************************* //
