/*--------------------------------*- C++ -*----------------------------------*\
| =========                 |                                                 |
| \\      /  F ield         | OpenFOAM: The Open Source CFD Toolbox           |
|  \\    /   O peration     | Version:  dev                                   |
|   \\  /    A nd           | Web:      www.OpenFOAM.org                      |
|    \\/     M anipulation  |                                                 |
\*---------------------------------------------------------------------------*/
FoamFile
{
    version     2.0;
    format      ascii;
    class       dictionary;
    object      fvSchemes;
}
// * * * * * * * * * * * * * * * * * * * * * * * * * * * * * * * * * * * * * //

ddtSchemes
{
    default steadyState;
}

gradSchemes
{
    default         Gauss linear;
}

divSchemes
{
    default         none;

    div(phi,U)      bounded Gauss limitedLinear 1;
    div(phi,K)      bounded Gauss limitedLinear 1;
    div(phi,e)      bounded Gauss limitedLinear 1;
    div(phi,h)      bounded Gauss limitedLinear 1;
    div(phi,k)      bounded Gauss limitedLinear 1;
    div(phi,epsilon) bounded Gauss limitedLinear 1;
    div(phi,omega) bounded Gauss limitedLinear 1;
    div(phi,R) bounded Gauss limitedLinear 1;
    div(phi,Ekp)    bounded Gauss limitedLinear 1;
    div(((rho*nuEff)*dev2(T(grad(U))))) Gauss linear;
    div(((rho*(thermo:mu|thermo:rho))*dev2(T(grad(U))))) Gauss linear;
    div((rho*R))    Gauss linear;
}

laplacianSchemes
{
    default         Gauss linear limited 0.66;
}

interpolationSchemes
{
    default         linear;
}

snGradSchemes
{
    default         limited 0.66;
}

fluxRequired
{
    default         no;
    p_rgh;
}

wallDist
{
    method meshWave;
}


// ************************************************************************* //
