/*--------------------------------*- C++ -*----------------------------------*\
| =========                 |                                                 |
| \\      /  F ield         | OpenFOAM: The Open Source CFD Toolbox           |
|  \\    /   O peration     | Version:  dev                                   |
|   \\  /    A nd           | Web:      www.OpenFOAM.org                      |
|    \\/     M anipulation  |                                                 |
\*---------------------------------------------------------------------------*/
FoamFile
{
    version     2.0;
    format      ascii;
    class       dictionary;
    location    "system";
    object      fvSolution;
}
// * * * * * * * * * * * * * * * * * * * * * * * * * * * * * * * * * * * * * //

solvers
{
    p_rgh
    {
        solver          GAMG;
        smoother        DIC;
        nPreSweeps      0;
        nPostSweeps     2;
        nFinestSweeps   2;
        cacheAgglomeration true;
        nCellsInCoarsestLevel 100;
        agglomerator    faceAreaPair;
        mergeLevels     1;
        tolerance       1e-10;
        relTol          0;
    }

    "(U|h|e|k|epsilon|omega|R.*)"
    {
        solver          PBiCG;
        preconditioner  DILU;
        tolerance       1e-9;
        relTol          0;
    }
    
    "moment.*"
    {
        solver          PCG;
        preconditioner  DIC;
        tolerance       1.0e-12;
        relTol          0;
    }
}

SIMPLE
{
    momentumPredictor yes;
    nNonOrthogonalCorrectors 0;
    pRefCell        0;
    pRefValue       1.0e5;

    residualControl
    {
        p_rgh           1e-4;
        U               1e-4;
        "(h|e)"         1e-4;

        "(k|epsilon|omega|R.*)" 1e-3;
    }
}

relaxationFactors
{
    fields
    {
        rho             1.0;
        p_rgh           0.3;
    }
    
    equations
    {
        U               0.3;
        "(h|e)"         0.1;
        "(k|epsilon|omega|R.*)" 0.4;
        "moment.*"      0.0001;
    }
}


// ************************************************************************* //
