/*--------------------------------*- C++ -*----------------------------------*\
  =========                 |
  \\      /  F ield         | OpenFOAM: The Open Source CFD Toolbox
   \\    /   O peration     | Website:  https://openfoam.org
    \\  /    A nd           | Version:  dev
     \\/     M anipulation  |
\*---------------------------------------------------------------------------*/
FoamFile
{
    version     2.0;
    format      ascii;
    class       dictionary;
    location    "system";
    object      fvSchemes;
}
// * * * * * * * * * * * * * * * * * * * * * * * * * * * * * * * * * * * * * //

ddtSchemes
{
    default         Euler;
}

gradSchemes
{
    default                         faceLimited     leastSquares 1.0;
    grad(p)                         leastSquares;
}

divSchemes
{
    default                         none;

    div(phi,U)                      Gauss linearUpwind grad(U);
    div(phi,sigma)                  Gauss vanAlbada;

    div(sigma)                      Gauss linear;
    div((nuEff*dev2(T(grad(U)))))   Gauss linear;
    div((nuM*grad(U)))              Gauss linear;
}

laplacianSchemes
{
    default                         Gauss linear corrected;
}

interpolationSchemes
{
    default                         linear;

    reconstruct(U)                  upwind;
    reconstruct(weight)             upwind;
}

snGradSchemes
{
    default                         corrected;
}

wallDist
{
    method meshWave;
}


// ************************************************************************* //
