/*--------------------------------*- C++ -*----------------------------------*\
| =========                 |                                                 |
| \\      /  F ield         | OpenFOAM: The Open Source CFD Toolbox           |
|  \\    /   O peration     | Version:  2.2.2                                 |
|   \\  /    A nd           | Web:      www.OpenFOAM.org                      |
|    \\/     M anipulation  |                                                 |
\*---------------------------------------------------------------------------*/
FoamFile
{
    version     2.0;
    format      ascii;
    class       dictionary;
    object      sampleDict;
}
// * * * * * * * * * * * * * * * * * * * * * * * * * * * * * * * * * * * * //


// Surface output format. Choice of
//      null        : suppress output
//      ensight     : Ensight Gold format, one field per case file
//      foamFile    : separate points, faces and values file
//      dx          : DX scalar or vector format
//      vtk         : VTK ascii format
//      raw         : x y z value format for use with e.g. gnuplot 'splot'.
//
// Note:
// other formats such as obj, stl, etc can also be written (by proxy)
// but without any values!

surfaceFormat vtk;


// interpolationScheme. choice of
//      cell          : use cell-centre value only; constant over cells
//                      (default)
//      cellPoint     : use cell-centre and vertex values
//      cellPointFace : use cell-centre, vertex and face values.
//      pointMVC      : use point values only (Mean Value Coordinates)
//      cellPatchConstrained : like 'cell' but uses cell-centre except on
//                             boundary faces where it uses the boundary value.
//                             For use with e.g. patchCloudSet.
// 1] vertex values determined from neighbouring cell-centre values
// 2] face values determined using the current face interpolation scheme
//    for the field (linear, gamma, etc.)

interpolationScheme cellPointFace;

// Fields to sample.
fields
(
    alpha.particles
	U.particles
	U.air
	Theta.particles
);


surfaces
(

            VSlice
            {
                type            plane;    // always triangulated
                basePoint       (0.0 0.0 0.03);
                normalVector    (0 0 1);
            }
            HSlice
            {
                type            plane;    // always triangulated
                basePoint       (0.0 0.15 0.0);
                normalVector    (0 1 0);
            }

);


// *********************************************************************** //
