/*--------------------------------*- C++ -*----------------------------------*\
| =========                 |                                                 |
| \\      /  F ield         | OpenFOAM: The Open Source CFD Toolbox           |
|  \\    /   O peration     | Version:  2.3.0                                 |
|   \\  /    A nd           | Web:      www.OpenFOAM.org                      |
|    \\/     M anipulation  |                                                 |
\*---------------------------------------------------------------------------*/
FoamFile
{
    version     2.0;
    format      ascii;
    class       dictionary;
    location    "constant";
    object      quadratureProperties;
}
// * * * * * * * * * * * * * * * * * * * * * * * * * * * * * * * * * * * * * //

moments
(
    (0)
    (1)
    (2)
    (3)
    (4)
    (5)
    (6)
);

nodes
(
    node0
    {
        nSecondaryNodes 20;
    }
    node1
    {
        nSecondaryNodes 20;
    }
    node2
    {
        nSecondaryNodes 20;
    }
);

extendedMomentInversionCoeff
{
    extendedMomentInversion     lognormal;
    
    maxSigmaIter        1000;
    momentsTol          1.0e-8;
    sigmaTol            1.0e-14;
    targetFunctionTol   1.0e-14;  
}
// ************************************************************************* //
