/*--------------------------------*- C++ -*----------------------------------*\
| =========                 |                                                 |
| \\      /  F ield         | OpenFOAM: The Open Source CFD Toolbox           |
|  \\    /   O peration     | Version:  dev                                   |
|   \\  /    A nd           | Web:      www.OpenFOAM.org                      |
|    \\/     M anipulation  |                                                 |
\*---------------------------------------------------------------------------*/
FoamFile
{
    version     2.0;
    format      ascii;
    class       dictionary;
    location    "system";
    object      fvSchemes;
}
// * * * * * * * * * * * * * * * * * * * * * * * * * * * * * * * * * * * * * //

ddtSchemes
{
    default         Euler;
}

gradSchemes
{
    default         cellLimited     leastSquares .2;
    grad(p_rgh)     leastSquares;
}

divSchemes
{
    default                         Gauss linear;

    div(phi,alpha.air)              Gauss vanLeer;
    div(phir,alpha.air)             Gauss vanLeer;
    div(phi,alpha.water)            Gauss vanLeer;
    "div\(phir,alpha.*,alpha.*\)"   Gauss vanLeer;

    "div\(alphaRhoPhi.*,U.*\)"      Gauss limitedLinearV 0.2;
    "div\(phi.*,U.*\)"              Gauss limitedLinearV 0.2;


    "div\(\(\(\(alpha.*\*thermo:rho.*\)\*nuEff.*\)\*dev2\(T\(grad\(U.*\)\)\)\)\)" Gauss linear;

    div((((alpha.air*rho.air)*nu.air)*dev2(T(grad(U.air))))) Gauss linear;
}

laplacianSchemes
{
    default         Gauss linear corrected;
}

interpolationSchemes
{
    default         linear;

    reconstruct(weight)     upwind;
    reconstruct(abscissa)   Minmod;
}

snGradSchemes
{
    default         corrected;
}

wallDist
{
    method      meshWave;
    nRequired   yes;
}


// ************************************************************************* //
