/*--------------------------------*- C++ -*----------------------------------*\
| =========                 |                                                 |
| \\      /  F ield         | OpenFOAM: The Open Source CFD Toolbox           |
|  \\    /   O peration     | Version:  dev                                   |
|   \\  /    A nd           | Web:      www.OpenFOAM.com                      |
|    \\/     M anipulation  |                                                 |
\*---------------------------------------------------------------------------*/

FoamFile
{
    version         2.0;
    format          ascii;
    class           dictionary;
    location        system;
    object          sampleDict;
}

// * * * * * * * * * * * * * * * * * * * * * * * * * * * * * * * * * * * * //

type sets;
libs ("libsampling.so");

setFormat raw;

surfaceFormat vtk;

interpolationScheme cell;

// Fields to sample.
fields
(
    moment.0.populationBalance
    moment.1.populationBalance
    moment.2.populationBalance
    moment.3.populationBalance
	moment.4.populationBalance
	moment.5.populationBalance
	moment.6.populationBalance
	moment.7.populationBalance
);


sets
(
    Centerline
    {
        type        lineCell;
        axis        x;

        start       (0 0.005 0);
        end         (1 0.005 0);
    }
);


surfaces ();

// *********************************************************************** //
