FoamFile
{
    version     2.0;
    format      ascii;
    class       polyBoundaryMesh;
    location    "constant/polyMesh";
    object      boundary;
}

4         
(
    frontAndBackPlanes
    {
        type empty;
        nFaces 25064;
        startFace 18578;
    }
    inlet
    {
        type patch;
        nFaces 20;
        startFace 43642;
    }
    outlet
    {
        type patch;
        nFaces 20;
        startFace 43662;
    }
    walls
    {
        type Unspecified;
        nFaces 400;
        startFace 43682;
    }
)
