/*--------------------------------*- C++ -*----------------------------------*\
  =========                 |
  \\      /  F ield         | OpenFOAM: The Open Source CFD Toolbox
   \\    /   O peration     | Website:  https://openfoam.org
    \\  /    A nd           | Version:  dev
     \\/     M anipulation  |
\*---------------------------------------------------------------------------*/
FoamFile
{
    version     2.0;
    format      ascii;
    class       dictionary;
    object      controlDict;
}
// * * * * * * * * * * * * * * * * * * * * * * * * * * * * * * * * * * * * * //

application     oneWayCoupledVdfTransportFoam;

startFrom       startTime;

startTime       0;

stopAt          endTime;

endTime         0.25;

deltaT          1e-4;

writeControl    adjustableRunTime;

writeInterval   .01;

purgeWrite      1000;

writeFormat     binary;

writePrecision  16;

writeCompression off;

timeFormat      general;

timePrecision   6;

runTimeModifiable true;

adjustTimeStep  yes;

maxCo           0.5;

maxDeltaT       1;

// ************************************************************************* //
