/*--------------------------------*- C++ -*----------------------------------*\
  =========                 |
  \\      /  F ield         | OpenFOAM: The Open Source CFD Toolbox
   \\    /   O peration     | Website:  https://openfoam.org
    \\  /    A nd           | Version:  dev
     \\/     M anipulation  |
\*---------------------------------------------------------------------------*/
FoamFile
{
    version     2.0;
    format      ascii;
    class       dictionary;
    object      blockMeshDict;
}
// * * * * * * * * * * * * * * * * * * * * * * * * * * * * * * * * * * * * * //

convertToMeters 1.0;

vertices
(
    (   0    0      0       )   //0
    (   1    0      0       )   //1
    (   1    1      0       )   //2
    (   0    1      0       )   //3
    (   0    0      1       )   //4
    (   1    0      1       )   //5
    (   1    1      1       )   //6
    (   0    1      1       )   //7
);

blocks
(
    hex (0 1 2 3 4 5 6 7) (1 1 1) simpleGrading (1 1 1)
);

edges
(
);

boundary
();

mergePatchPairs
(
);

// ************************************************************************* //)))))
