/*--------------------------------*- C++ -*----------------------------------*\
| =========                 |                                                 |
| \\      /  F ield         | OpenFOAM: The Open Source CFD Toolbox           |
|  \\    /   O peration     | Version:  v2112                                 |
|   \\  /    A nd           | Website:  www.openfoam.com                      |
|    \\/     M anipulation  |                                                 |
\*---------------------------------------------------------------------------*/
FoamFile
{
    version     2.0;
    format      ascii;
    class       dictionary;
    location    "constant";
    object      quadratureProperties;
}
// * * * * * * * * * * * * * * * * * * * * * * * * * * * * * * * * * * * * * //

fieldMomentInversion extendedFieldMomentInversion;

momentInversion extended;

extendedMomentInversion	lognormal;

maxSigmaIter 	50;
momentsTol      1.0e-8;
sigmaTol 	1.0e-14;
fTol		1.0e-14;


// ************************************************************************* //
