/*--------------------------------*- C++ -*----------------------------------*\
| =========                 |                                                 |
| \\      /  F ield         | OpenFOAM: The Open Source CFD Toolbox           |
|  \\    /   O peration     | Version:  dev                                   |
|   \\  /    A nd           | Web:      www.OpenFOAM.org                      |
|    \\/     M anipulation  |                                                 |
\*---------------------------------------------------------------------------*/
FoamFile
{
    version     2.0;
    format      ascii;
    class       dictionary;
    location    "constant";
    object      quadratureProperties;
}
// * * * * * * * * * * * * * * * * * * * * * * * * * * * * * * * * * * * * * //

fieldMomentInversion extendedFieldMomentInversion;

extendedMomentInversion
{
    extendedMomentInversion lognormal;

    basicQuadrature
    {
        univariateMomentInversion  Gauss;
    };
}

moments
(
    (0)
    (1)
    (2)
    (3)
    (4)
);

nodes
(
    node0
    {
        nSecondaryNodes 10;
    }
    node1
    {
        nSecondaryNodes 10;
    }
);

fluxQuadrature
{
    univariateMomentInversion   GaussRadau;
}
// ************************************************************************* //
