/*--------------------------------*- C++ -*----------------------------------*\
| =========                 |                                                 |
| \\      /  F ield         | OpenFOAM: The Open Source CFD Toolbox           |
|  \\    /   O peration     | Version:  dev                                   |
|   \\  /    A nd           | Web:      www.OpenFOAM.org                      |
|    \\/     M anipulation  |                                                 |
\*---------------------------------------------------------------------------*/
FoamFile
{
    version     2.0;
    format      ascii;
    class       dictionary;
    location    "constant";
    object      populationaBalanceProperties;
}
// * * * * * * * * * * * * * * * * * * * * * * * * * * * * * * * * * * * * * //

populationBalanceModel univariate;

univariateCoeffs
{
    diffusionModel
    {
        diffusionModel none;
    }

    aggregation on;

    aggregationKernel
    {
        aggregationKernel hydrodynamic;

        Ca        Ca        [ 0 0 -1 0 0 0 0 ] 1.0;
    }

    breakup on;

    breakupKernel
    {
        breakupKernel exponential;

        expCoeff  expCoeff  [ 0 -3 0 0 0 0 0 ] 0.01;
        Cb        Cb        [ 0 0 -1 0 0 0 0 ] 0.1;
        minAbscissa 1.709975947;   //pow(5.0,1.0/3.0)
    }

    daughterDistribution
    {
        daughterDistribution oneQuarterMassRatio;
    }

    growth off;

    growthModel
    {
        growthModel	constant;
        minAbscissa     minAbscissa [0 -2 0 0 0 0 0] 0.0;
        maxAbscissa     maxAbscissa [0 -2 0 0 0 0 0] 1.0;

        Cg        Cg        [0 3 -1 0 0 0 0 ] 1.0;
    }

    nucleationModel
    {
        nucleationModel  none;
    }

    odeCoeffs
    {
        ATol    1.0e-6;
        RTol    1.0e-3;
        fac     0.9;
        facMin  0.2;
        facMax  2.0;
        minLocalDt 1.0e-7;
    }
}





// ************************************************************************* //
