/*--------------------------------*- C++ -*----------------------------------*\
| =========                 |                                                 |
| \\      /  F ield         | OpenFOAM: The Open Source CFD Toolbox           |
|  \\    /   O peration     | Version:  v2112                                 |
|   \\  /    A nd           | Website:  www.openfoam.com                      |
|    \\/     M anipulation  |                                                 |
\*---------------------------------------------------------------------------*/
FoamFile
{
    version     2.0;
    format      ascii;
    class       dictionary;
    location    "constant";
    object      quadratureProperties;
}
// * * * * * * * * * * * * * * * * * * * * * * * * * * * * * * * * * * * * * //

basicQuadrature
{
    univariateMomentInversion   Gauss;
}

moments
(
    (0 0 0 0)
    (1 0 0 0)
    (2 0 0 0)
    (3 0 0 0)
    (4 0 0 0)
    (5 0 0 0)

    (0 1 0 0)
    (0 0 1 0)
    (0 0 0 1)
    (0 2 0 0)
    (0 1 1 0)
    (0 1 0 1)
    (0 0 2 0)
    (0 0 1 1)
    (0 0 0 2)
    (0 3 0 0)
    (0 2 1 0)
    (0 2 0 1)
    (0 1 2 0)
    (0 1 1 1)
    (0 1 0 2)
    (0 0 3 0)
    (0 0 2 1)
    (0 0 1 2)
    (0 0 0 3)
    (0 4 0 0)
    (0 0 4 0)
    (0 0 0 4)

    (1 1 0 0)
    (1 0 1 0)
    (1 0 0 1)
    (1 2 0 0)
    (1 1 1 0)
    (1 1 0 1)
    (1 0 2 0)
    (1 0 1 1)
    (1 0 0 2)
    (1 3 0 0)
    (1 2 1 0)
    (1 2 0 1)
    (1 1 2 0)
    (1 1 1 1)
    (1 1 0 2)
    (1 0 3 0)
    (1 0 2 1)
    (1 0 1 2)
    (1 0 0 3)
    (1 4 0 0)
    (1 0 4 0)
    (1 0 0 4)

    (2 1 0 0)
    (2 0 1 0)
    (2 0 0 1)
    (2 2 0 0)
    (2 1 1 0)
    (2 1 0 1)
    (2 0 2 0)
    (2 0 1 1)
    (2 0 0 2)
    (2 3 0 0)
    (2 2 1 0)
    (2 2 0 1)
    (2 1 2 0)
    (2 1 1 1)
    (2 1 0 2)
    (2 0 3 0)
    (2 0 2 1)
    (2 0 1 2)
    (2 0 0 3)
    (2 4 0 0)
    (2 0 4 0)
    (2 0 0 4)
);

nodes
(
    (0 0 0 0)
    (0 0 1 0)
    (0 0 2 0)
    (0 0 0 1)
    (0 0 1 1)
    (0 0 2 1)
    (0 0 0 2)
    (0 0 1 2)
    (0 0 2 2)
    (0 1 0 0)
    (0 1 1 0)
    (0 1 2 0)
    (0 1 0 1)
    (0 1 1 1)
    (0 1 2 1)
    (0 1 0 2)
    (0 1 1 2)
    (0 1 2 2)
    (0 2 0 0)
    (0 2 1 0)
    (0 2 2 0)
    (0 2 0 1)
    (0 2 1 1)
    (0 2 2 1)
    (0 2 0 2)
    (0 2 1 2)
    (0 2 2 2)

    (1 0 0 0)
    (1 0 1 0)
    (1 0 2 0)
    (1 0 0 1)
    (1 0 1 1)
    (1 0 2 1)
    (1 0 0 2)
    (1 0 1 2)
    (1 0 2 2)
    (1 1 0 0)
    (1 1 1 0)
    (1 1 2 0)
    (1 1 0 1)
    (1 1 1 1)
    (1 1 2 1)
    (1 1 0 2)
    (1 1 1 2)
    (1 1 2 2)
    (1 2 0 0)
    (1 2 1 0)
    (1 2 2 0)
    (1 2 0 1)
    (1 2 1 1)
    (1 2 2 1)
    (1 2 0 2)
    (1 2 1 2)
    (1 2 2 2)

    (2 0 0 0)
    (2 0 1 0)
    (2 0 2 0)
    (2 0 0 1)
    (2 0 1 1)
    (2 0 2 1)
    (2 0 0 2)
    (2 0 1 2)
    (2 0 2 2)
    (2 1 0 0)
    (2 1 1 0)
    (2 1 2 0)
    (2 1 0 1)
    (2 1 1 1)
    (2 1 2 1)
    (2 1 0 2)
    (2 1 1 2)
    (2 1 2 2)
    (2 2 0 0)
    (2 2 1 0)
    (2 2 2 0)
    (2 2 0 1)
    (2 2 1 1)
    (2 2 2 1)
    (2 2 0 2)
    (2 2 1 2)
    (2 2 2 2)

);

// ************************************************************************* //
