/*--------------------------------*- C++ -*----------------------------------*\
| =========                 |                                                 |
| \\      /  F ield         | OpenFOAM: The Open Source CFD Toolbox           |
|  \\    /   O peration     | Version:  v2112                                 |
|   \\  /    A nd           | Website:  www.openfoam.com                      |
|    \\/     M anipulation  |                                                 |
\*---------------------------------------------------------------------------*/
FoamFile
{
    version     2.0;
    format      ascii;
    class       dictionary;
    location    "constant";
    object      quadratureProperties;
}
// * * * * * * * * * * * * * * * * * * * * * * * * * * * * * * * * * * * * * //

extendedMomentInversion	lognormal;

nSecondaryNodes    20;
maxSigmaIter       100000;
momentsTol         1.0e-14;
sigmaTol           1.0e-14;
targetFunctionTol  1.0e-14;

basicQuadrature
{
    univariateMomentInversion   Gauss;
}

// ************************************************************************* //
