/*--------------------------------*- C++ -*----------------------------------*\
  =========                 |
  \\      /  F ield         | OpenFOAM: The Open Source CFD Toolbox
   \\    /   O peration     | Website:  https://openfoam.org
    \\  /    A nd           | Version:  dev
     \\/     M anipulation  |
\*---------------------------------------------------------------------------*/
FoamFile
{
    version     2.0;
    format      ascii;
    class       dictionary;
    object      blockMeshDict;
}
// * * * * * * * * * * * * * * * * * * * * * * * * * * * * * * * * * * * * * //

convertToMeters 0.1;

W       1.0;
h       0.1;
depth   0.1;



vertices
(
    (   0    0      0       )   //0
    (   $W   0      0       )   //1
    (   $W   $h     0       )   //2
    (   0    $h     0       )   //3
    (   0    0      $depth  )   //4
    (   $W   0      $depth  )   //5
    (   $W   $h     $depth  )   //6
    (   0    $h     $depth  )   //7
);

blocks
(
    hex (0 1 2 3 4 5 6 7) (100 1 1) simpleGrading (1 1 1)
);

edges
(
);

boundary
(
    inlet1
    {
        type            cyclic;
        neighbourPatch  inlet2;
        faces
        (
            (0 3 7 4)
        );
    }
    inlet2
    {
        type            cyclic;
        neighbourPatch  inlet1;
        faces
        (
            (1 2 6 5)
        );
    }
);

mergePatchPairs
(
);

// ************************************************************************* //)))))
