/*--------------------------------*- C++ -*----------------------------------*\
  =========                 |
  \\      /  F ield         | OpenFOAM: The Open Source CFD Toolbox
   \\    /   O peration     | Website:  https://openfoam.org
    \\  /    A nd           | Version:  dev
     \\/     M anipulation  |
\*---------------------------------------------------------------------------*/
FoamFile
{
    version     2.0;
    format      ascii;
    class       dictionary;
    object      fvSchemes;
}
// * * * * * * * * * * * * * * * * * * * * * * * * * * * * * * * * * * * * * //

ddtSchemes
{
    default steadyState;
}

gradSchemes
{
    default         Gauss linear;
}

divSchemes
{
    default         none;

    div(phi,U)      bounded Gauss limitedLinearV 0.2;
    div(phi,K)      bounded Gauss limitedLinear 0.2;
    div(phi,e)      bounded Gauss limitedLinear 0.2;
    div(phi,h)      bounded Gauss limitedLinear 0.2;
    div(phi,k)      bounded Gauss limitedLinear 0.2;
    div(phi,epsilon) bounded Gauss limitedLinear 0.2;
    div(phi,R) bounded Gauss limitedLinear 0.2;
    div(phi,Ekp)    bounded Gauss limitedLinear 0.2;
    div((nuEff*dev2(T(grad(U))))) Gauss linear;
    div((nu*dev2(T(grad(U))))) Gauss linear;
    div((rho*R))    Gauss linear;
    div(((rho*(thermo:mu|rho))*dev2(T(grad(U))))) Gauss linear;
}

laplacianSchemes
{
    default         Gauss linear uncorrected;
}

interpolationSchemes
{
    default         linear;
}

snGradSchemes
{
    default         uncorrected;
}

wallDist
{
    method meshWave;
}


// ************************************************************************* //
