/*--------------------------------*- C++ -*----------------------------------*\
| =========                 |                                                 |
| \\      /  F ield         | OpenFOAM: The Open Source CFD Toolbox           |
|  \\    /   O peration     | Version:  2.3.x                                 |
|   \\  /    A nd           | Web:      www.OpenFOAM.org                      |
|    \\/     M anipulation  |                                                 |
\*---------------------------------------------------------------------------*/
FoamFile
{
    version     2.0;
    format      ascii;
    class       volScalarField;
    location    "0";
    object      moment.4;
}
// * * * * * * * * * * * * * * * * * * * * * * * * * * * * * * * * * * * * * //

dimensions      [0 1 0 0 0 0 0];

internalField   uniform 5.0e-11;

boundaryField
{
    "wedge.*"
    {
        type            wedge;
    }
    innerWall
    {
        type            zeroGradient;
    }
    outerWall
    {
        type            zeroGradient;
    }
    inlet
    {
        type            symmetry;
    }
    outlet
    {
        type            zeroGradient;
    }
}


// ************************************************************************* //
