/*--------------------------------*- C++ -*----------------------------------*\
| =========                 |                                                 |
| \\      /  F ield         | OpenFOAM: The Open Source CFD Toolbox           |
|  \\    /   O peration     | Version:  dev                                   |
|   \\  /    A nd           | Web:      www.OpenFOAM.org                      |
|    \\/     M anipulation  |                                                 |
\*---------------------------------------------------------------------------*/
FoamFile
{
    version     2.0;
    format      ascii;
    class       dictionary;
    location    "constant";
    object      populationaBalanceProperties;
}
// * * * * * * * * * * * * * * * * * * * * * * * * * * * * * * * * * * * * * //

populationBalanceModel univariatePopulationBalance;

univariatePopulationBalanceCoeffs
{
    aggregation on;

    aggregationKernel
    {
        aggregationKernel hydrodynamic;

        Ca        Ca        [ 0 0 -1 0 0 0 0 ] 1.0;
    }

    breakup on;

    breakupKernel
    {
        breakupKernel exponential;

        expCoeff  expCoeff  [ 0 -3 0 0 0 0 0 ] 0.01;
        Cb        Cb        [ 0 0 -1 0 0 0 0 ] 0.1;
    }

    daughterDistribution
    {
        daughterDistribution symmetricFragmentation;
    }

    diffusionModel
    {
        diffusionModel  none;
    }

    growth off;

    growthModel
    {
        growthModel constant;

        Cg        Cg        [0 3 -1 0 0 0 0 ] 1.0;
    }
}





// ************************************************************************* //
