/*--------------------------------*- C++ -*----------------------------------*\
  =========                 |
  \\      /  F ield         | OpenFOAM: The Open Source CFD Toolbox
   \\    /   O peration     | Website:  https://openfoam.org
    \\  /    A nd           | Version:  dev
     \\/     M anipulation  |
\*---------------------------------------------------------------------------*/
FoamFile
{
    version     2.0;
    format      ascii;
    class       dictionary;
    location    "constant";
    object      populationaBalanceProperties;
}
// * * * * * * * * * * * * * * * * * * * * * * * * * * * * * * * * * * * * * //

populationBalanceModel velocity;

velocityCoeffs
{
    odeCoeffs
    {
        solveOde off;
        solveSources on;

        ATol    1.0e-6;
        RTol    1.0e-3;
        fac     0.9;
        facMin  0.1;
        facMax  5.0;
        minLocalDt 1.0e-4;
    }

    collision  on;

    collisionKernel
    {
        collisionKernel Boltzmann;
        e           0.5;
        rho         2000;
        Enskog      on;
        implicit    off;
    }

    diffusionModel
    {
        diffusionModel  none;
    }

    aggregation off;
    aggregationKernel
    {
        aggregationKernel differentialForce;

        Ca        Ca        [ 0 0 -1 0 0 0 0 ] 1.0;
    }

    breakup off;
    breakupKernel
    {
        breakupKernel constant;
        Cb        Cb        [ 0 0 -1 0 0 0 0 ] 0.02;

        daughterDistribution
        {
            daughterDistribution symmetricFragmentation;
        }
    }

    growth off;
    growthModel
    {
        growthModel	constant;
        minAbscissa     minAbscissa [0 -2 0 0 0 0 0] 0.0;
        maxAbscissa     maxAbscissa [0 -2 0 0 0 0 0] 1.0;

        Cg              Cg        [0 3 -1 0 0 0 0 ] 1.0;
    }

    nucleation off;
    nucleationModel
    {
        nucleationModel  none;
    }
}

// ************************************************************************* //
