/*--------------------------------*- C++ -*----------------------------------*\
| =========                 |                                                 |
| \\      /  F ield         | OpenFOAM: The Open Source CFD Toolbox           |
|  \\    /   O peration     | Version:  dev                                   |
|   \\  /    A nd           | Web:      www.OpenFOAM.org                      |
|    \\/     M anipulation  |                                                 |
\*---------------------------------------------------------------------------*/
FoamFile
{
    version     2.0;
    format      ascii;
    class       dictionary;
    location    "constant";
    object      quadratureProperties;
}
// * * * * * * * * * * * * * * * * * * * * * * * * * * * * * * * * * * * * * //
supports ("R" "R" "R" "R" "R");
"basicQuadrature.*"
{
    univariateMomentInversion   Gauss;
}

velocityIndexes (0 1 3);

moments
(
    (0 0 0 0 0)

    (1 0 0 0 0)
    (0 1 0 0 0)
    (0 0 1 0 0)
    (0 0 0 1 0)
    (0 0 0 0 1)

    (2 0 0 0 0)
    (0 2 0 0 0)
    (0 0 2 0 0)
    (0 0 0 2 0)
    (0 0 0 0 2)
    (1 1 0 0 0)
    (1 0 1 0 0)
    (0 1 1 0 0)
    (1 0 0 1 0)
    (0 1 0 1 0)
    (0 0 1 1 0)

    (3 0 0 0 0)
    (0 3 0 0 0)
    (0 0 3 0 0)
    (0 0 0 3 0)
    (0 0 0 0 3)

    (2 1 0 0 0)
    (2 0 1 0 0)
    (0 2 1 0 0)
    (0 1 2 0 0)
    (1 0 2 0 0)
    (1 2 0 0 0)
    (1 1 1 0 0)
    (1 0 0 2 0)
    (1 0 1 1 0)
    (0 0 1 2 0)
    (1 1 0 1 0)
    (0 1 0 2 0)
    (0 1 1 1 0)

    (1 3 0 0 0)
    (1 0 3 0 0)
    (1 0 0 3 0)
    (1 1 2 0 0)
    (0 1 3 0 0)
    (1 0 1 2 0)
    (0 0 1 3 0)
    (1 1 0 2 0)
    (0 1 0 3 0)
    (1 1 1 1 0)
    (0 1 1 2 0)

    (1 1 3 0 0)
    (1 0 1 3 0)
    (1 1 0 3 0)
    (1 1 1 2 0)
    (0 1 1 3 0)

    (1 1 1 3 0)

    (0 0 0 0 1)
    (0 1 0 0 1)
    (1 0 0 0 1)
    (1 1 0 0 1)
    (0 0 1 0 1)
    (0 1 1 0 1)
    (1 0 1 0 1)
    (1 1 1 0 1)
    (0 0 0 1 1)
    (0 1 0 1 1)
    (1 0 0 1 1)
    (1 1 0 1 1)
    (0 0 1 1 1)
    (0 1 1 1 1)
    (1 0 1 1 1)
    (1 1 1 1 1)

    (0 0 0 0 2)
    (0 1 0 0 2)
    (1 0 0 0 2)
    (1 1 0 0 2)
    (0 0 1 0 2)
    (0 1 1 0 2)
    (1 0 1 0 2)
    (1 1 1 0 2)
    (0 0 0 1 2)
    (0 1 0 1 2)
    (1 0 0 1 2)
    (1 1 0 1 2)
    (0 0 1 1 2)
    (0 1 1 1 2)
    (1 0 1 1 2)
    (1 1 1 1 2)

    (0 0 0 0 3)
    (0 1 0 0 3)
    (1 0 0 0 3)
    (1 1 0 0 3)
    (0 0 1 0 3)
    (0 1 1 0 3)
    (1 0 1 0 3)
    (1 1 1 0 3)
    (0 0 0 1 3)
    (0 1 0 1 3)
    (1 0 0 1 3)
    (1 1 0 1 3)
    (0 0 1 1 3)
    (0 1 1 1 3)
    (1 0 1 1 3)
    (1 1 1 1 3)



);

nodes
(
    (0 0 0 0 0)
    (0 1 0 0 0)
    (1 0 0 0 0)
    (1 1 0 0 0)
    (0 0 1 0 0)
    (0 1 1 0 0)
    (1 0 1 0 0)
    (1 1 1 0 0)
    (0 0 0 1 0)
    (0 1 0 1 0)
    (1 0 0 1 0)
    (1 1 0 1 0)
    (0 0 1 1 0)
    (0 1 1 1 0)
    (1 0 1 1 0)
    (1 1 1 1 0)

    (0 0 0 0 1)
    (0 1 0 0 1)
    (1 0 0 0 1)
    (1 1 0 0 1)
    (0 0 1 0 1)
    (0 1 1 0 1)
    (1 0 1 0 1)
    (1 1 1 0 1)
    (0 0 0 1 1)
    (0 1 0 1 1)
    (1 0 0 1 1)
    (1 1 0 1 1)
    (0 0 1 1 1)
    (0 1 1 1 1)
    (1 0 1 1 1)
    (1 1 1 1 1)

);

// ************************************************************************* //
