/*--------------------------------*- C++ -*----------------------------------*\
| =========                 |                                                 |
| \\      /  F ield         | OpenFOAM: The Open Source CFD Toolbox           |
|  \\    /   O peration     | Version:  dev                                   |
|   \\  /    A nd           | Web:      www.OpenFOAM.org                      |
|    \\/     M anipulation  |                                                 |
\*---------------------------------------------------------------------------*/
FoamFile
{
    version     2.0;
    format      ascii;
    class       dictionary;
    location    "system";
    object      fvSchemes;
}
// * * * * * * * * * * * * * * * * * * * * * * * * * * * * * * * * * * * * * //

ddtSchemes
{
    default         Euler;
}

gradSchemes
{
    default             leastSquares;
    "grad\(moment.*\)"  leastSquares;
}

divSchemes
{
    default             none;
    div(phi,moment)     upwind;
}

laplacianSchemes
{
    default         Gauss linear corrected;
}

interpolationSchemes
{
    default         linear;

    "interpolate\(moment.*\)" linear;
    reconstruct(U)          upwind;
    reconstruct(weight)     upwind;
    reconstruct(abscissa)   upwind;
    reconstruct(sigma)      upwind;
}

snGradSchemes
{
    default         corrected;
}


// ************************************************************************* //
