/*--------------------------------*- C++ -*----------------------------------*\
  =========                 |
  \\      /  F ield         | OpenFOAM: The Open Source CFD Toolbox
   \\    /   O peration     | Website:  https://openfoam.org
    \\  /    A nd           | Version:  dev
     \\/     M anipulation  |
\*---------------------------------------------------------------------------*/
FoamFile
{
    version     2.0;
    format      ascii;
    class       dictionary;
    object      blockMeshDict;
}
// * * * * * * * * * * * * * * * * * * * * * * * * * * * * * * * * * * * * * //

convertToMeters 1;

W       1.0;
h       1.0;
depth   1;

vertices
(
    (   0    0      0       )   //0
    (   $W   0      0       )   //3
    (   $W   $h     0       )   //4
    (   0    $h     0       )   //7
    (   0    0      $depth  )   //8
    (   $W   0      $depth  )   //11
    (   $W   $h     $depth  )   //12
    (   0    $h     $depth  )   //15
);

blocks
(
    hex (0 1 2 3 4 5 6 7) (1 1 1) simpleGrading (1 1 1)
);

edges
(
);

boundary
(
);

mergePatchPairs
(
);

// ************************************************************************* //)))))
