/*--------------------------------*- C++ -*----------------------------------*\
  =========                 |
  \\      /  F ield         | OpenFOAM: The Open Source CFD Toolbox
   \\    /   O peration     | Website:  https://openfoam.org
    \\  /    A nd           | Version:  dev
     \\/     M anipulation  |
\*---------------------------------------------------------------------------*/
FoamFile
{
    version     2.0;
    format      binary;
    class       polyBoundaryMesh;
    location    "constant/polyMesh";
    object      boundary;
}
// * * * * * * * * * * * * * * * * * * * * * * * * * * * * * * * * * * * * * //

6
(
    inlet
    {
        type            symmetry;
        inGroups        List<word> 1(symmetry);
        nFaces          18;
        startFace       12582;
    }
    outlet
    {
        type            wall;
        inGroups        List<word> 1(wall);
        nFaces          18;
        startFace       12600;
    }
    outerWall
    {
        type            wall;
        inGroups        List<word> 1(wall);
        nFaces          360;
        startFace       12618;
    }
    innerWall
    {
        type            wall;
        inGroups        List<word> 1(wall);
        nFaces          360;
        startFace       12978;
    }
    wedge1
    {
        type            wedge;
        inGroups        List<word> 1(wedge);
        nFaces          6480;
        startFace       13338;
    }
    wedge2
    {
        type            wedge;
        inGroups        List<word> 1(wedge);
        nFaces          6480;
        startFace       19818;
    }
)

// ************************************************************************* //
