/*--------------------------------*- C++ -*----------------------------------*\
| =========                 |                                                 |
| \\      /  F ield         | OpenFOAM: The Open Source CFD Toolbox           |
|  \\    /   O peration     | Version:  dev                                   |
|   \\  /    A nd           | Web:      www.OpenFOAM.org                      |
|    \\/     M anipulation  |                                                 |
\*---------------------------------------------------------------------------*/
FoamFile
{
    version     2.0;
    format      ascii;
    class       dictionary;
    location    "constant";
    object      populationaBalanceProperties;
}
// * * * * * * * * * * * * * * * * * * * * * * * * * * * * * * * * * * * * * //

populationBalanceModel univariate;

univariateCoeffs
{
    ode on;
    odeCoeffs
    {
        ATol    1e-12;
        RTol    1e-8;
        fac     0.8;
        facMin  1e-4;
        facMax  1.5;
    }

    diffusionModel
    {
        diffusionModel none;
    }

    aggregation on;

    aggregationKernel
    {
        aggregationKernel hydrodynamic;

        Ca        Ca        [ 0 0 -1 0 0 0 0 ] 1.0;
    }

    breakup on;

    breakupKernel
    {
        breakupKernel exponential;

        expCoeff  expCoeff  [ 0 -3 0 0 0 0 0 ] 0.01;
        Cb        Cb        [ 0 0 -1 0 0 0 0 ] 0.1;
    }

    daughterDistribution
    {
        daughterDistribution symmetricFragmentation;
    }

    growth off;

    growthModel
    {
        growthModel	constant;
        minAbscissa     minAbscissa [0 -2 0 0 0 0 0] 0.0;
        maxAbscissa     maxAbscissa [0 -2 0 0 0 0 0] 1.0;

        Cg        Cg        [0 3 -1 0 0 0 0 ] 1.0;
    }

    nucleation off;

    nucleationModel
    {
        nucleationModel  none;
    }
}





// ************************************************************************* //
