/*--------------------------------*- C++ -*----------------------------------*\
  =========                 |
  \\      /  F ield         | OpenFOAM: The Open Source CFD Toolbox
   \\    /   O peration     | Website:  https://openfoam.org
    \\  /    A nd           | Version:  dev
     \\/     M anipulation  |
\*---------------------------------------------------------------------------*/
FoamFile
{
    version     2.0;
    format      ascii;
    class       dictionary;
    location    "system";
    object      controlDict;
}
// * * * * * * * * * * * * * * * * * * * * * * * * * * * * * * * * * * * * * //

application     vdfTransportFoam;

startFrom       startTime;

startTime       0;

stopAt          endTime;

endTime         20;

deltaT          1;

adjustTimeStep  off;

writeControl    runTime;

writeInterval   1;

purgeWrite      0;

writeFormat     binary;

writePrecision  12;

writeCompression off;

timeFormat      general;

timePrecision   6;

runTimeModifiable true;

suppressSolverInfo yes;

maxCo           0.5;

maxDeltaT       0.1;

functions
{
    probes
    {
        // Where to load it from
        functionObjectLibs ( "libsampling.so" );

        type            probes;

        // Name of the directory for probe data
        name            probes;

        // Write at same frequency as fields
        writeControl   timeStep;
        writeInterval  1;

        // Fields to be probed
        fields
        (
            moment.0000.particles
            moment.1000.particles
            moment.2000.particles
            moment.3000.particles
            moment.4000.particles
        );

        probeLocations
        (
            ( 0.5 0.5 0.5 )
        );
    }
}

// ************************************************************************* //
