/*--------------------------------*- C++ -*----------------------------------*\
| =========                 |                                                 |
| \\      /  F ield         | OpenFOAM: The Open Source CFD Toolbox           |
|  \\    /   O peration     | Version:  dev                                   |
|   \\  /    A nd           | Web:      www.OpenFOAM.org                      |
|    \\/     M anipulation  |                                                 |
\*---------------------------------------------------------------------------*/
FoamFile
{
    version     2.0;
    format      ascii;
    class       dictionary;
    location    "system";
    object      controlDict;
}
// * * * * * * * * * * * * * * * * * * * * * * * * * * * * * * * * * * * * * //

application     pbeFoam;

startFrom       startTime;

startTime       0;

stopAt          endTime;

endTime         10;

deltaT          0.001;

maxDeltaT       1;

adjustTimeStep  off;        // Currently not available

writeControl    runTime;

writeInterval   0.1;

purgeWrite      0;

writeFormat     binary;     // Use binary to avoid corruption of moments

writeCompression uncompressed;

timeFormat      general;

timePrecision   6;

runTimeModifiable yes;

suppressSolverInfo yes;

maxCo           0.5;

maxDeltaT       0.1;

functions
{
    probes
    {
        // Where to load it from
        functionObjectLibs ( "libsampling.so" );

        type            probes;

        // Name of the directory for probe data
        name            probes;

        // Write at same frequency as fields
        outputControl   timeStep;
        outputInterval  1;

        // Fields to be probed
        fields
        (
            moment.0 
            moment.1 
            moment.2 
            moment.3 
            moment.4
        );

        probeLocations
        (
            ( 0.5 0.5 0.5 )        
        );
    }
}

// ************************************************************************* //
