/*--------------------------------*- C++ -*----------------------------------*\
  =========                 |
  \\      /  F ield         | OpenFOAM: The Open Source CFD Toolbox
   \\    /   O peration     | Website:  https://openfoam.org
    \\  /    A nd           | Version:  dev
     \\/     M anipulation  |
\*---------------------------------------------------------------------------*/
FoamFile
{
    version     2.0;
    format      ascii;
    class       dictionary;
    location    "system";
    object      momentGenerationDict;
}
// * * * * * * * * * * * * * * * * * * * * * * * * * * * * * * * * * * * * * //

phases (particles);

boundaries
{
    ".*"
    {
        type calculated;
    }
}


particles
{
    type                weightsAndAbscissae;
    weightDimension     [0 -3 0 0 0 0 0];
    abscissaDimension   [0 1 -1 0 0 0 0];
    abscissaDimension0  [0 1 0 0 0 0 0];

    default
    {
        node0
        {
            weight  0.125;
            abscissa (1.0 1.0 1.0 1.0);
        }
        node1
        {
            weight  0.125;
            abscissa (1.0 1.0 1.0 -1.0);
        }
        node2
        {
            weight  0.125;
            abscissa (1.0 1.0 -1.0 1.0);
        }
        node3
        {
            weight  0.125;
            abscissa (1.0 1.0 -1.0 -1.0);
        }
        node4
        {
            weight  0.125;
            abscissa (1.0 -1.0 1.0 1.0);
        }
        node5
        {
            weight  0.125;
            abscissa (1.0 -1.0 1.0 -1.0);
        }
        node6
        {
            weight  0.125;
            abscissa (1.0 -1.0 -1.0 1.0);
        }
        node7
        {
            weight  0.125;
            abscissa (1.0 -1.0 -1.0 -1.0);
        }
    }
}


// ************************************************************************* //
