/*--------------------------------*- C++ -*----------------------------------*\
  =========                 |
  \\      /  F ield         | OpenFOAM: The Open Source CFD Toolbox
   \\    /   O peration     | Website:  https://openfoam.org
    \\  /    A nd           | Version:  dev
     \\/     M anipulation  |
\*---------------------------------------------------------------------------*/
FoamFile
{
    version     2.0;
    format      ascii;
    class       dictionary;
    object      blockMeshDict;
}
// * * * * * * * * * * * * * * * * * * * * * * * * * * * * * * * * * * * * * //

convertToMeters .01;

vertices
(
    (   0     0       0       )   //0
    (   4.5   0       0       )   //1
    (   5.5   0       0       )   //2
    (   9.5   0       0       )   //3
    (   10.5  0       0       )   //4
    (   14.5  0       0       )   //5
    (   15.5  0       0       )   //6
    (   20    0       0       )   //7
    (   20    90      0       )   //8
    (   15.5  90      0       )   //9
    (   14.5  90      0       )   //10
    (   10.5  90      0       )   //11
    (   9.5   90      0       )   //12
    (   5.5   90      0       )   //13
    (   4.5   90      0       )   //14
    (   0     90      0       )   //15

    (   0     0       5  )   //16
    (   4.5   0       5  )   //17
    (   5.5   0       5  )   //18
    (   9.5   0       5  )   //19
    (   10.5  0       5  )   //20
    (   14.5  0       5  )   //21
    (   15.5  0       5  )   //22
    (   20    0       5  )   //23
    (   20    90      5  )   //24
    (   15.5  90      5  )   //25
    (   14.5  90      5  )   //26
    (   10.5  90      5  )   //27
    (   9.5   90      5  )   //28
    (   5.5   90      5  )   //29
    (   4.5   90      5  )   //30
    (   0     90    5  )   //31

);

blocks
(
    hex (0 1 14 15 16 17 30 31) (9 180 1) simpleGrading (1 1 1)
    hex (1 2 13 14 17 18 29 30) (2 180 1) simpleGrading (1 1 1)
    hex (2 3 12 13 18 19 28 29) (8 180 1) simpleGrading (1 1 1)
    hex (3 4 11 12 19 20 27 28) (2 180 1) simpleGrading (1 1 1)
    hex (4 5 10 11 20 21 26 27) (8 180 1) simpleGrading (1 1 1)
    hex (5 6 9 10 21 22 25 26)  (2 180 1) simpleGrading (1 1 1)
    hex (6 7 8 9 22 23 24 25)   (9 180 1) simpleGrading (1 1 1)
);

edges
(
);

boundary
(
    inlet
    {
        type            patch;
        faces
        (
            (3 4 20 19)
        );
    }

    outlet
    {
        type            patch;
        faces
        (
            (14 15 31 30)
            (13 14 30 29)
            (12 13 29 28)
            (11 12 28 27)
            (10 11 27 26)
            (9  10 26 25)
            (8  9  25 24)
        );
    }

    walls
    {
        type            wall;

        faces
        (
            (0 1 17 16)
            (2 3 19 18)
            (4 5 21 20)
            (6 7 23 22)

            (15 0 16 31)
            (7 8 24 23)

            (1 2 18 17)
            (5 6 22 21)
        );
    }
);

mergePatchPairs
(
);

// ************************************************************************* //
