/*--------------------------------*- C++ -*----------------------------------*\
| =========                 |                                                 |
| \\      /  F ield         | OpenFOAM: The Open Source CFD Toolbox           |
|  \\    /   O peration     | Version:  dev                                   |
|   \\  /    A nd           | Web:      www.OpenFOAM.org                      |
|    \\/     M anipulation  |                                                 |
\*---------------------------------------------------------------------------*/
FoamFile
{
    version     2.0;
    format      ascii;
    class       polyBoundaryMesh;
    location    "constant/polyMesh";
    object      boundary;
}
// * * * * * * * * * * * * * * * * * * * * * * * * * * * * * * * * * * * * * //

5
(
    frontAndBack
    {
        type            empty;
        inGroups        1(empty);
        nFaces          1665836;
        startFace       1248353;
    }
    top
    {
        type            cyclic;
        inGroups        1(cyclic);
        nFaces          512;
        startFace       2914189;
        matchTolerance  0.0001;
        transform       unknown;
        neighbourPatch  bottom;
    }
    bottom
    {
        type            cyclic;
        inGroups        1(cyclic);
        nFaces          512;
        startFace       2914701;
        matchTolerance  0.0001;
        transform       unknown;
        neighbourPatch  top;
    }
    right
    {
        type            cyclic;
        inGroups        1(cyclic);
        nFaces          512;
        startFace       2915213;
        matchTolerance  0.0001;
        transform       unknown;
        neighbourPatch  left;
    }
    left
    {
        type            cyclic;
        inGroups        1(cyclic);
        nFaces          512;
        startFace       2915725;
        matchTolerance  0.0001;
        transform       unknown;
        neighbourPatch  right;
    }
)

// ************************************************************************* //
