/*--------------------------------*- C++ -*----------------------------------*\
| =========                 |                                                 |
| \\      /  F ield         | OpenFOAM: The Open Source CFD Toolbox           |
|  \\    /   O peration     | Version:  dev                                   |
|   \\  /    A nd           | Web:      www.OpenFOAM.org                      |
|    \\/     M anipulation  |                                                 |
\*---------------------------------------------------------------------------*/
FoamFile
{
    version     2.0;
    format      ascii;
    class       volScalarField;
    object      moment.03;
}
// * * * * * * * * * * * * * * * * * * * * * * * * * * * * * * * * * * * * * //

dimensions          [0 3 -3 0 0 0 0];

internalField       uniform 0;

boundaryField
{
    walls
    {
        type                fixedValue;
        value               $internalField;
    }
    outlet
    {
        type               zeroGradient;
    }
    inlet1
    {
        type               fixedValue;
        value              uniform 0.125;
    }
    inlet2
    {
        type               fixedValue;
        value              uniform 0.125;
    }
    defaultFaces
    {
        type    empty;
    }
}

// * * * * * * * * * * * * * * * * * * * * * * * * * * * * * * * * * * * * * //
