/*--------------------------------*- C++ -*----------------------------------*\
  =========                 |
  \\      /  F ield         | OpenFOAM: The Open Source CFD Toolbox
   \\    /   O peration     | Website:  https://openfoam.org
    \\  /    A nd           | Version:  dev
     \\/     M anipulation  |
\*---------------------------------------------------------------------------*/
FoamFile
{
    version     2.0;
    format      ascii;
    class       dictionary;
    location    "system";
    object      fvSolution;
}
// * * * * * * * * * * * * * * * * * * * * * * * * * * * * * * * * * * * * * //

solvers
{
    p_rgh
    {
        solver           GAMG;
        tolerance        1e-6;
        relTol           0;
        smoother         GaussSeidel;
        nPreSweeps       0;
        nPostSweeps      2;
        cacheAgglomeration on;
        agglomerator     faceAreaPair;
        nCellsInCoarsestLevel 100;
        mergeLevels      1;
    }

    "(U|h|e|k|epsilon|omega|R)"
    {
        solver          PBiCG;
        preconditioner  DILU;
        tolerance       1e-9;
        relTol          0;
    }

    "moment.*"
    {
        solver          PCG;
        preconditioner  DIC;
        tolerance       1.0e-12;
        relTol          0;
    }
}

SIMPLE
{
    momentumPredictor yes;
    nNonOrthogonalCorrectors 0;
    pRefCell        0;
    pRefValue       1.0e5;

    residualControl
    {
        p           1e-6;
        U               1e-6;
        "(h|e)"         1e-6;

        "(k|epsilon|omega|R.*)" 1e-6;
    }
}

PIMPLE
{
    nOuterCorrectors    1;
    nNonOrthogonalCorrectors 0;
    nCorrectors         1;
    pRefCell            0;
    pRefValue           1.0e5;

    outerCorrectorResidualControl
    {
        "moment.*"
        {
            tolerance 1e-6;
            relTol    0;
        }
    }
}

relaxationFactors
{
    fields
    {
        p           0.7;
    }

    equations
    {
        U               0.3;
        "(h|e)"         0.7;
        "(k|epsilon|omega|R)" 0.3;
        "moment.*"      1;
    }
}


// ************************************************************************* //
