/*--------------------------------*- C++ -*----------------------------------*\
| =========                 |                                                 |
| \\      /  F ield         | OpenFOAM: The Open Source CFD Toolbox           |
|  \\    /   O peration     | Version:  3.0.x                                 |
|   \\  /    A nd           | Web:      www.OpenFOAM.org                      |
|    \\/     M anipulation  |                                                 |
\*---------------------------------------------------------------------------*/
FoamFile
{
    version     2.0;
    format      binary;
    class       polyBoundaryMesh;
    location    "constant/polyMesh";
    object      boundary;
}
// * * * * * * * * * * * * * * * * * * * * * * * * * * * * * * * * * * * * * //

6
(
    inlet
    {
        type            symmetry;
        inGroups        1(symmetry);
        nFaces          18;
        startFace       6282;
    }
    outlet
    {
        type            wall;
        inGroups        1(wall);
        nFaces          18;
        startFace       6300;
    }
    outerWall
    {
        type            wall;
        inGroups        1(wall);
        nFaces          180;
        startFace       6318;
    }
    innerWall
    {
        type            wall;
        inGroups        1(wall);
        nFaces          180;
        startFace       6498;
    }
    wedge1
    {
        type            wedge;
        inGroups        1(wedge);
        nFaces          3240;
        startFace       6678;
    }
    wedge2
    {
        type            wedge;
        inGroups        1(wedge);
        nFaces          3240;
        startFace       9918;
    }
)

// ************************************************************************* //
